TLTK/Dynamic Thay Huy/Vi du minh hoa/Vd04 - VN system with PSS on inter-area mode/VN_branch_trip.txt

  ITER       DELTAP      BUS         DELTAQ      BUS        DELTA/V/      BUS       DELTAANG      BUS
   0         0.2400(   974011   )    0.0412(   973682   )
                                                             0.06979(   973683   )   0.18350(   974011   )
   1         0.0139(   173680   )    0.0694(   923012   )
                                                             0.01368(   973683   )   0.00936(   973683   )
   2         0.0002(   173680   )    0.0010(   923012   )
                                                             0.00023(   973683   )   0.00017(   973683   )
   3         0.0000(    77270   )    0.0000(   923012   )


 Reached tolerance in 3 iterations

 Largest mismatch:     -0.00 MW      0.00 Mvar      0.00 MVA at bus 923012 [HOABINH_H2  15.750]
 System total absolute mismatch:                    0.01 MVA

 SWING BUS SUMMARY:
   BUS# X-- NAME --X BASKV      PGEN     PMAX    PMIN      QGEN     QMAX    QMIN
 113015 HAKHAU1     110.00      64.6    150.0     0.0      20.1     30.0   -30.0
 126047 THAMCAU1    110.00     -12.0*   150.0     0.0      12.3     30.0   -30.0
 213019 MAGUAN2     220.00     139.4    300.0     0.0      -5.7    100.0  -100.0
 216011 TANKIEU2    220.00     148.6    300.0     0.0     -52.9    100.0  -100.0
 923011 HOABINH_H1  15.750      45.7    240.0     0.0      17.2    170.2   -80.0

 Generator conversion completed using ZSORCE

 1795 loads converted during this step

 1795 of 1795 loads converted
 Ordering network...
 Diagonals = 4909   Off-diagonals = 7264   Maximum size = 11102

 4909 diagonal and 6673 off-diagonal elements
 Out of file data--switch to terminal input mode

 Generator models use:
  CONS        1-  5200
  STATES      1-  2191

 Excitation System models use:
  CONS     5201-  8526
  STATES   2192-  3231
  VARS        1-    21

 Turbine Governor models use:
  CONS     8527-  9294
  STATES   3232-  3487
  VARS       22-   149

 Wind Generator models use:
  CONS     9295-  9308
  STATES   3488-  3490
  VARS      150-   153
  ICONS       1-     1


 SUMMARY OF MODELS READ:

 GENS:  GENROU           GENSAL
         146              263

 EXSYS: IEEET2           SEXS             EXAC1            EXAC4
          14              303                7               26

        EXDC2            EXST1            EXPIC1           ESAC1A
           7               13                4                4

        ESST4B
          29

 GOVS:  HYGOV
          64

 USER:  USRMDL
           1

 NEXT AVAILABLE ADDRESSES ARE:
    CON  STATE    VAR   ICON
   9309   3491    154      2

 Only PSS/E supplied models in case. Compilation is not required

 5 Output channels have been added


 Next available addresses are:
   CHANNEL   VAR   ICON
        6    154      2
   1  0.43     960696 [TD_HMUN     6.0000]    -0.4293E-04     0.6709E-05

     PTI INTERACTIVE POWER SYSTEM SIMULATOR--PSS(R)E     TUE, NOV 02 2021  23:29
 2016 - DRY SEASON - LOW LOAD
 NORMAL OPERATION

 INITIAL CONDITION LOAD FLOW USED 1 ITERATIONS

 ----------------------------- MACHINE INITIAL CONDITIONS -----------------------------
   BUS# X-- NAME --X BASKV ID  ETERM   EFD    POWER    VARS   P.F.  ANGLE   ID     IQ
 113015 HAKHAU1     110.00 1  1.0300 1.3161   64.57   20.13 0.9547  11.88 0.1602 0.2866
 126047 THAMCAU1    110.00 1  1.0500 1.2664  -11.99   12.31-0.6977  -2.21 0.0608-0.0548
 213019 MAGUAN2     220.00 1  1.0500 1.2183  139.43   -5.72 0.9992  13.29 0.0631 0.3262
 216011 TANKIEU2    220.00 1  1.0600 1.1045  148.56  -52.94 0.9420  15.00-0.0299 0.3708
 912011 NADUONG_S1  6.3000 1  1.0300 2.4523   50.04   24.92 0.8951  38.16 0.7437 0.4483
 912012 NADUONG_S2  6.3000 1  1.0300 2.4523   50.04   24.92 0.8951  38.16 0.7437 0.4483
 914011 THACBA_H1   10.500 1  1.0000 2.6680    0.00   32.25 0.0000 -12.23 0.7588 0.0000
 915001 TUYENQUAN_H113.800 1  1.0000 1.0790    0.00   -2.26 0.0000  -4.03-0.0169 0.0000
 915011 CHIEMHOA_H1 10.500 1  1.0000 1.7480    0.00    5.54 0.0000  -6.12 0.3115 0.0000
 916031 NALE_H1     11.000 1  1.0000 1.1987    0.00    0.15 0.0000  -5.84 0.0028 0.0000
 916424 MUONGHUM_1  10.500 1  1.1000 2.4858   16.00    7.67 0.9018  23.59 0.6376 0.5727
 916443 NGOIPHAT_H1 10.500 1  1.0000 1.1428    0.00   -0.88 0.0000  -3.66-0.0310-0.0000
 916451 TATHANG_H1  10.500 1  1.0000 0.7799    0.00   -9.22 0.0000  -6.55-0.2612-0.0000
 916453 NAMPANG_H1  10.500 1  1.0000 1.2439    0.00    0.63 0.0000  -6.36 0.0298 0.0000
 916456 SUPAN_H1    10.500 1  1.0000 2.0163    0.00    9.52 0.0000  -4.37 0.4496 0.0000
 917011 BANCHAT_H1  13.800 1  1.0000 0.7998    0.00  -33.64 0.0000   4.25-0.2447-0.0000
 917021 LAICHAU_H1  18.000 1  1.0000 0.9011   50.00  -74.02 0.5598  12.66-0.1553 0.1279
 917731 NAMKHOA3_H1 6.0000 1  1.0100 1.3882   11.01   -1.82 0.9866  45.56 0.4784 0.8576
 919011 SONLA_H1    18.000 1  1.0000 1.2147  300.00  -33.10 0.9940  39.61 0.2501 0.6321
 919012 SONLA_H2    18.000 1  1.0000 1.0854  200.00  -39.66 0.9809  29.54 0.0673 0.4543
 919013 SONLA_H3    18.000 1  1.0500 1.6834  300.00  127.29 0.9206  32.24 0.4840 0.5044
 919014 SONLA_H4    18.000 1  1.0500 1.6834  300.00  127.29 0.9206  32.24 0.4840 0.5044
 919021 NAMCHIEN1_H113.800 1  1.0500 1.0040   50.00  -25.88 0.8881  26.63-0.0683 0.4600
 919307 SUOISAP_H1  10.500 1  1.0000 0.5928    0.00   -3.21 0.0000   1.31-0.2467-0.0000
 921012 VIETTR2I4_C223.000 1  1.0000 1.9529    0.00   32.85 0.0000  -9.06 0.3285 0.0000
 922011 CAONGAN_S1  10.500 1  1.0300 1.5862   50.00   -9.49 0.9825  49.36 0.4594 0.5680
 922012 CAONGAN_S2  10.500 1  1.0300 1.5862   50.00   -9.49 0.9825  49.36 0.4594 0.5680
 923011 HOABINH_H1  15.750 1  1.0000 1.1928   45.69   17.17 0.9361   6.89 0.0844 0.1622
 923012 HOABINH_H2  15.750 1  1.0065 1.3208   90.00   35.21 0.9313  13.62 0.2012 0.2980
 924001 SONDONG_S1  10.500 1  1.0200 2.4445   90.00   32.98 0.9389  51.53 0.6279 0.3582
 924002 SONDONG_S2  10.500 2  1.0200 2.4445   90.00   32.98 0.9389  51.53 0.6279 0.3582
 926015 UONGBI_S5   6.3000 1  1.0200 2.1367   50.00   19.05 0.9345  41.12 0.5955 0.4770
 926016 UONGBI_S6   6.3000 1  1.0000 1.8498   50.00    6.65 0.9913  47.27 0.5099 0.5275
 926020 UONGBIMR_S2 19.000 1  1.0000 1.8019  250.00   23.02 0.9958  62.78 0.5439 0.4473
 926021 UONGBIMR_S1 19.000 1  1.0000 1.8019  250.00   23.02 0.9958  62.78 0.5439 0.4473
 926031 CAMPHA1_S1  20.000 1  1.0000 1.5679  250.00   -9.18 0.9993  62.72 0.4375 0.4469
 926032 CAMPHA1_S2  20.000 1  1.0000 1.5679  250.00   -9.18 0.9993  62.72 0.4375 0.4469
 926041 QUANGNIN1_S120.000 1  1.0000 1.4654  150.00   24.73 0.9867  45.13 0.2817 0.3257
 926042 QUANGNIN1_S220.000 1  1.0000 1.5551  150.00   42.47 0.9622  41.33 0.3143 0.3102
 926051 MAOKHE_S1   15.000 1  1.0000 2.0213  200.00   12.36 0.9981  65.97 0.6280 0.4126
 926052 MAOKHE_S2   15.000 1  1.0000 2.0213  200.00   12.36 0.9981  65.97 0.6280 0.4126
 926071 QUANGNIN2_S119.000 1  1.0000 1.8114  200.00   64.57 0.9516  45.80 0.4726 0.3623
 926072 QUANGNIN2_S219.000 2  1.0000 1.9928  250.00   67.73 0.9652  52.50 0.6052 0.4150
 926081 MONGDUON1_S119.000 1  1.0300 2.1274  400.00   30.27 0.9971  59.95 0.5212 0.4082
 926091 MONGDUON2_S123.000 1  1.0300 1.6726  300.00   24.13 0.9968  47.03 0.2677 0.3164
 927021 HAIPHONG1_S121.000 1  1.0000 1.9348  250.00   54.36 0.9772  57.47 0.5849 0.4246
 927022 HAIPHONG1_S221.000 1  1.0000 1.9348  250.00   54.36 0.9772  57.47 0.5849 0.4246
 927031 HAIPHONG2_S119.000 1  1.0000 2.2234  250.00  113.87 0.9100  51.62 0.6758 0.3858
 928011 PHALAI1_S1  10.500 1  1.0000 2.1710  100.08   16.88 0.9861  55.97 0.6058 0.3792
 928012 PHALAI1_S2  10.500 1  1.0000 2.1663  100.08   16.51 0.9867  56.09 0.6050 0.3797
 928013 PHALAI1_S3  10.500 1  1.0000 2.1254  100.08   13.30 0.9913  59.70 0.5983 0.3841
 928014 PHALAI1_S4  10.500 1  1.0000 1.9853  100.08    1.39 0.9999  64.52 0.5799 0.4006
 928021 PHALAI2_S1  19.000 1  1.0000 1.6400  250.00   10.35 0.9991  54.94 0.4595 0.4338
 928022 PHALAI2_S2  19.000 1  1.0000 1.6398  250.00   10.31 0.9992  54.95 0.4594 0.4338
 933011 NINHBINH_S1 6.3000 1  1.0000 1.9541   25.00    3.83 0.9885  49.31 0.6725 0.4526
 933012 NINHBINH_S2 6.3000 1  1.0000 2.2327   25.00   12.34 0.8968  38.20 0.7936 0.4106
 933013 NINHBINH_S3 6.3000 1  1.0000 2.2296   25.00   12.28 0.8976  38.27 0.7925 0.4109
 933014 NINHBINH_S4 6.3000 1  1.0000 1.9670   25.00    4.10 0.9868  48.93 0.6754 0.4508
 936001 BATHUOC2_H1 13.800 1  1.0000 0.7827    0.00  -10.43 0.0000  -4.93-0.2216-0.0000
 936011 CUADAT_H1   13.800 1  1.0400 0.7654    0.00  -16.67 0.0000  -3.71-0.2809-0.0000
 936021 NGHISON1_S1 21.000 1  1.0000 1.7935  250.00   25.13 0.9950  61.49 0.5420 0.4434
 936022 NGHISON1_S2 21.000 1  1.0000 1.7935  250.00   25.13 0.9950  61.49 0.5420 0.4434
 937001 BANVE_H1    15.000 1  1.0000 1.0794    0.00   -3.12 0.0000   4.85-0.0166-0.0000
 937011 NHANHAC_H1  10.500 1  1.0500 1.6789   15.00    1.18 0.9969  50.88 0.5510 0.7061
 937021 KHEBO_H1    13.800 1  1.0300 1.4455    0.00   11.96 0.0000   4.78 0.1975 0.0000
 937041 HUANA_H1    13.800 1  1.0300 1.6493    0.00   34.27 0.0000  -0.14 0.3142 0.0000
 937061 CHIKHE_H1   10.500 1  1.0300 1.2578   41.00   -8.18 0.9807  56.35 0.3390 0.7376
 938011 VUNGANG1_S1 26.000 1  1.0000 2.2988  550.00   38.81 0.9975  72.59 0.6595 0.4186
 938012 VUNGANG1_S2 26.000 1  1.0000 2.2988  550.00   38.81 0.9975  72.59 0.6595 0.4186
 938021 FORMOSAHT_S113.800 1  1.0300 2.0268   50.00   34.44 0.8236  32.17 0.2696 0.2019
 938022 FORMOSAHT_S213.800 1  1.0300 1.1486   50.00  -23.60 0.9044  46.74 0.0414 0.3039
 938024 FORMOSAHT_G413.800 1  1.0300 2.0145   30.00   27.65 0.7353  27.74 0.2501 0.1605
 938371 HUONGSON1_H110.000 1  1.0000 1.8237   16.01    4.97 0.9550  30.76 0.5554 0.5937
 951011 QUANGTRI_H1 10.500 1  1.0300 1.8556    0.00   16.49 0.0000  -4.80 0.4251 0.0000
 952001 HUONGDIEN_H110.500 1  1.0000 1.3328    0.00    5.45 0.0000  -3.63 0.1703 0.0000
 952011 ALUOI_H1    13.800 1  1.0200 1.8179   85.00   23.74 0.9631  40.59 0.6123 0.6113
 952012 ALUOI_H2    13.800 1  1.0200 1.8179   85.00   23.74 0.9631  40.59 0.6123 0.6113
 952021 BINHDIEN_H1 10.500 1  1.0000 1.9482   18.01    8.63 0.9018  27.14 0.5728 0.5173
 952022 BINHDIEN_H2 10.500 1  1.0000 1.9482   18.01    8.63 0.9018  27.14 0.5728 0.5173
 954071 DAKMI4_H1   13.800 1  1.0000 1.1029    0.00    0.20 0.0000   3.63 0.0023 0.0000
 954073 DAKMI4B_H1  10.500 1  1.0000 0.9286    0.00   -2.63 0.0000   3.21-0.1064-0.0000
 954075 DAKMI4C_H1  10.500 1  1.0000 1.8227    9.00   -1.34 0.9891  73.64 0.7217 0.4663
 954091 SONGBUNG5_H110.500 1  1.0000 1.0772    0.00    0.00 0.0000   3.72 0.0000 0.0000
 956011 DONGNAI3_H1 15.750 1  1.0000 1.1360   50.00   -5.63 0.9937  32.85 0.1114 0.4619
 956022 BUONTUASA_H213.800 1  1.0000 1.2644   35.03   -2.53 0.9974  45.70 0.3095 0.6212
 956031 DONGNAI4_H1 15.750 1  1.0000 1.1645  100.00   -7.74 0.9970  34.56 0.1418 0.4810
 956041 DAKRTIH_H1  13.800 1  1.0000 1.0115    0.00   -2.18 0.0000   9.32-0.0451-0.0000
 956043 DAKRTIH_H3  13.800 1  1.0000 1.0118    0.00   -1.64 0.0000   9.32-0.0449-0.0000
 956051 DONGNAI2_H1 13.800 1  1.0000 0.9604    0.00   -4.65 0.0000  11.34-0.1129-0.0000
 957001 BUONKUOP_H1 13.800 1  1.0000 1.0618   50.00  -10.81 0.9774  24.26 0.0057 0.3100
 957011 SEREPOK3_H1 13.800 1  1.0000 1.1093   50.00   -4.53 0.9959  31.03 0.0864 0.3779
 957021 SEREPOK4_H1 10.500 1  1.0000 1.4306   40.00   -0.69 0.9999  51.47 0.4780 0.7030
 958011 VINHSON_H1  13.800 1  1.0000 1.5441   33.00    2.03 0.9981  33.32 0.4598 0.6869
 959001 PLEIKRONG_H113.800 1  1.0000 1.2690   45.03   -5.34 0.9930  58.87 0.3547 0.6846
 959765 TD_DAKDOA   22.000 1  1.0500 1.3258    7.00   -4.30 0.8521  90.47 0.5774 0.5280
 959765 TD_DAKDOA   22.000 2  1.0500 1.3258    7.00   -4.30 0.8521  90.47 0.5774 0.5280
 959785 TD_DAKPSI4  10.500 1  1.0500 1.5059   10.00   -4.05 0.9267  83.96 0.6033 0.5108
 959819 TD_DAKNE    6.0000 1  1.0000 1.5463    2.70    0.64 0.9728  42.27 0.4410 0.5357
 959819 TD_DAKNE    6.0000 2  1.0000 1.5463    2.70    0.64 0.9728  42.27 0.4410 0.5357
 959819 TD_DAKNE    6.0000 3  1.0000 1.5463    2.70    0.64 0.9728  42.27 0.4410 0.5357
 960011 YALI_H1     15.750 1  1.0000 1.7433  150.11   44.27 0.9592  40.71 0.5090 0.5358
 960021 SESAN3_H1   13.800 1  1.0000 1.1525  100.00  -15.85 0.9877  40.65 0.1770 0.5875
 960031 SESAN3A_H1  10.500 1  1.0000 1.2131   50.00   -7.73 0.9883  46.11 0.2824 0.6943
 960041 ANKHE_H1    13.800 1  1.0000 1.7373   80.00   22.71 0.9620  38.72 0.5859 0.5902
 960051 SESAN4_H1   15.750 1  1.0209 1.0470  100.07  -40.00 0.9286  47.24 0.1352 0.7353
 960052 SESAN4_H2   15.750 2  1.0209 1.0470  100.08  -40.00 0.9286  47.24 0.1352 0.7353
 960061 SESAN4A_H1  10.500 1  1.0000 1.0395   21.00   -4.32 0.9795  23.35-0.0056 0.2143
 960715 DAKSRON2A_H16.0000 1  1.0000 1.7177    6.00   -0.42 0.9975  57.00 0.6121 0.4366
 961011 SONGHINH_H1 10.500 1  1.0000 1.6838   35.00    5.41 0.9883  36.24 0.5341 0.6735
 961021 SONGBAHA_H1 13.800 1  1.0000 1.7565  105.08   44.38 0.9212  34.87 0.6596 0.5838
 970011 DANHIM_H1   13.200 1  1.0000 1.3997   40.00    0.65 0.9999  41.30 0.3708 0.8080
 970012 DANHIM_H2   13.200 1  1.0000 1.3996   40.00    0.64 0.9999  41.31 0.3707 0.8080
 970021 SONGPHA_H1  6.0000 1  1.0000 1.1985    7.01   -1.89 0.9654  57.95 0.3850 0.7084
 970031 DADANG_H1   10.000 1  1.0000 1.6131   17.00   -3.54 0.9790  65.77 0.5052 0.6422
 970041 DAMBRI_H1   13.800 1  1.0000 1.2572   37.03   -6.77 0.9837  56.89 0.3986 0.7543
 970685 BAOLOC_H1   6.0000 1  1.0000 1.7184   12.01   -3.31 0.9641  87.41 0.7155 0.4849
 970711 BACBINH_H1  11.000 1  1.0000 1.3417   16.01   -1.47 0.9958  54.74 0.4308 0.7193
 971011 HAMTHUAN_H1 13.800 1  1.0500 1.5979  150.00   25.09 0.9863  44.48 0.4918 0.6540
 971021 DAMY_H1     13.800 1  1.0000 1.4251   85.06   -0.36 1.0000  52.37 0.4611 0.6852
 972021 DAININH_H1  13.800 1  1.0000 1.2630  150.00  -25.06 0.9863  52.02 0.3719 0.7772
 972051 VINHTAN2_S1 26.000 1  1.0000 2.4252  550.00   86.67 0.9878  72.26 0.6753 0.4076
 972052 VINHTAN2_S2 26.000 1  1.0000 2.4252  550.00   86.67 0.9878  72.26 0.6753 0.4076
 972071 LANGAU_H1   10.500 1  1.0000 0.9253   38.00  -23.26 0.8529  60.84 0.2117 0.8655
 973011 THACMO_H1   13.800 1  1.0000 1.4704   75.00   -6.48 0.9963  47.28 0.4134 0.7461
 973021 SROKPHUMI_H111.000 1  1.0500 1.2964   25.02    6.39 0.9689  23.94 0.1016 0.2240
 973022 SROKPHUMI_H211.000 1  1.0500 1.2964   25.02    6.39 0.9689  23.94 0.1016 0.2240
 974021 CANDON_H1   11.000 1  1.0200 1.3431   35.00   -0.65 0.9998  34.88 0.2483 0.7094
 974022 CANDON_H2   11.000 1  1.0000 1.1214   35.00   -8.28 0.9731  37.49 0.1306 0.7768
 975011 AMATA_S1    10.000 1  1.0500 1.4961   14.01    0.89 0.9980  11.72 0.0226 0.1318
 975021 VEDAN_S1    13.000 1  1.0500 1.9799   55.04   23.08 0.9222  38.68 0.5653 0.4304
 975031 TRIAN_H1    13.800 1  1.0000 1.4889  100.00    8.23 0.9966  37.16 0.4274 0.7384
 975041 FORMOSA_S1  13.800 1  1.1000 2.0367  150.00   50.97 0.9468  41.61 0.5783 0.5855
 975042 FORMOSA_S2  13.800 1  1.1000 1.7794  150.00   35.88 0.9726  37.02 0.4239 0.5496
 975051 NHONTRAC1_G115.000 1  1.0000 2.3882  185.14   30.33 0.9868  74.39 0.7429 0.3787
 975052 NHONTRAC1_G215.000 2  1.0000 2.1662  185.14   30.33 0.9868  74.04 0.7405 0.3833
 975053 NHONTRAC1_G315.000 3  1.0000 2.1662  185.14   30.33 0.9868  74.04 0.7405 0.3833
 975061 NHONTRAC2_G120.000 1  1.0000 1.5673  200.00  -36.38 0.9839  78.72 0.5283 0.4099
 975062 NHONTRAC2_G220.000 1  1.0000 1.5673  200.00  -36.38 0.9839  78.72 0.5283 0.4099
 975071 NHONTRAC2_S120.000 1  1.0000 1.8203  200.00  -38.14 0.9823  79.53 0.5329 0.4057
 977011 HIEPPHUOC_S113.800 1  1.0400 1.9597   90.00   21.27 0.9732  52.84 0.4861 0.3600
 977012 HIEPPHUOC_S213.800 1  1.0400 1.9587   90.00   21.18 0.9734  52.90 0.4858 0.3602
 977013 HIEPPHUOC_S313.800 1  1.0400 1.9792   90.00   22.89 0.9692  52.30 0.4913 0.3572
 977021 THUDUC_S1   13.800 1  1.0000 1.6326   33.00   -4.92 0.9891  60.74 0.5129 0.5488
 977022 THUDUC_S2   13.800 1  1.0500 2.5080   62.00   26.68 0.9186  39.11 0.6293 0.4594
 978001 BARIA_S1    11.000 1  1.0400 1.8723   55.00   -3.61 0.9979  61.16 0.5197 0.5126
 978002 BARIA_S2    11.000 1  1.0000 1.9262   55.04    1.27 0.9997  63.92 0.5897 0.4768
 978013 BARIA_G3    11.000 1  1.0300 1.7367   31.02    2.09 0.9977  49.23 0.4209 0.4764
 978014 BARIA_G4    11.000 1  1.0300 1.7367   31.02    2.09 0.9977  49.23 0.4209 0.4764
 978015 BARIA_G5    11.000 1  1.0000 1.7972   31.02    2.57 0.9966  55.23 0.5392 0.4958
 978016 BARIA_G6    11.000 1  1.0000 1.7972   31.02    2.57 0.9966  55.23 0.5392 0.4958
 978017 BARIA_G7    11.000 1  1.0000 1.7972   31.02    2.57 0.9966  55.23 0.5392 0.4958
 978018 BARIA_G8    11.000 1  1.0300 1.8130   31.02    2.09 0.9977  51.68 0.4846 0.5034
 978021 PHUMY1_G1   15.000 1  1.0000 1.8765  200.00   13.55 0.9977  65.02 0.5284 0.4383
 978022 PHUMY1_G2   15.000 1  1.0000 1.8792  200.00   14.02 0.9976  64.90 0.5288 0.4379
 978023 PHUMY1_G3   15.000 1  1.0000 1.8791  200.00   14.00 0.9976  64.91 0.5288 0.4379
 978041 PHUMY21_G1  15.750 1  1.0200 2.3607  145.00   38.87 0.9659  64.73 0.6130 0.3397
 978042 PHUMY21_G2  15.750 1  1.0200 2.5631  145.00   61.29 0.9211  55.32 0.6631 0.3169
 978044 PHUMY21_G4  10.500 1  1.0000 1.8219  145.00   -6.90 0.9989  62.55 0.6416 0.5634
 978045 PHUMY21_G5  10.500 1  1.0000 1.9220  145.00    6.74 0.9989  64.05 0.6596 0.5423
 978051 PHUMY21_S1  15.800 1  1.0000 2.1240  145.00   -3.11 0.9998  76.07 0.7395 0.4253
 978061 PHUMY4_G1   15.750 1  1.0000 2.0329  150.11   47.29 0.9538  70.71 0.6628 0.3498
 978062 PHUMY4_G2   15.750 1  1.0000 2.4911  150.11   47.29 0.9538  71.61 0.6682 0.3393
 978071 PHUMY4_S1   15.750 1  1.0000 2.3941  150.11   47.29 0.9538  73.78 0.6806 0.3137
 978081 PHUMY22_G1  15.750 1  1.0400 2.2338  238.70   37.92 0.9876  69.65 0.6109 0.4178
 978082 PHUMY22_G2  15.750 1  1.0400 2.2338  238.70   37.92 0.9876  69.65 0.6109 0.4178
 978091 PHUMY22_S1  15.750 1  1.0011 2.2507  277.60    0.00 1.0000  85.08 0.7046 0.4106
 978101 PHUMY3_G1   15.750 1  1.0000 1.9197  237.20  -20.75 0.9962  76.62 0.6819 0.5131
 978111 PHUMY3_S1   15.750 1  1.0000 2.4163  268.40  -17.61 0.9979  83.74 0.7854 0.4430
 983011 CANTHO_S1   13.000 1  1.0000 2.6208   30.00   20.94 0.8201  49.62 0.8111 0.3811
 983021 CANTHO_G1   11.000 1  0.9900 1.4907   35.00  -20.43 0.8637  93.07 0.7099 0.6276
 983022 CANTHO_G2   11.000 1  0.9900 1.6185   35.00  -20.43 0.8637  97.16 0.7529 0.5753
 983023 CANTHO_G3   11.000 1  0.9900 1.8407   33.00  -20.49 0.8496 104.52 0.9406 0.5733
 983024 CANTHO_G4   11.000 1  0.9900 1.8407   33.00  -20.49 0.8496 104.52 0.9406 0.5733
 983041 OMON1_S1    16.000 1  1.0200 1.9379  280.00   60.90 0.9772  54.48 0.5382 0.4240
 983042 OMON1_S2    16.000 1  1.0200 1.9379  280.00   60.90 0.9772  54.48 0.5382 0.4240
 990011 TRAVINH1_S1 26.000 1  1.0200 2.4679  450.00  172.03 0.9341  55.05 0.5697 0.3509
 991012 CAMAU1_S2   20.000 1  1.0000 2.1157  250.00   18.74 0.9972  73.56 0.7328 0.4866
 991021 CAMAU1_G1   20.000 1  1.0000 2.5009  250.00   17.87 0.9975  78.50 0.7730 0.4194
 991022 CAMAU1_G2   20.000 1  1.0000 2.1157  250.00   18.74 0.9972  73.56 0.7328 0.4866
 991025 CAMAU2_S3   20.000 1  1.0100 4.4427   10.00   14.36 0.5716  35.93 1.3109 0.2388
   1  0.25E-01 785005 [PHUTAN14    10.000]     0.2487E-05    -0.3005E-06

 INITIAL CONDITIONS CHECK O.K.

 Channel output file is "VN_wind_2.out"

 Channel output file is "VN_wind_2.out"

    TIME X- VALUE --X X--------- IDENTIFIER ---------X X- VALUE --X X--------- IDENTIFIER ---------X
 -0.0050   0.0000     SPD 919013[SONLA_H3    18.000]1    0.0000     SPD 923012[HOABINH_H2  15.750]1
     3     0.0000     SPD 938011[VUNGANG1_S1 26.000]1    0.0000     SPD 978022[PHUMY1_G2   15.000]1
     5     0.0000     SPD 983042[OMON1_S2    16.000]1

  1.0000 -4.52063E-08 -6.13441E-08 -8.35456E-08 -6.95686E-08 -1.00166E-07

 *** Status of circuit "1" from 60097 [PLEIKU5_CB1 500.00] to 77013 [CAUBONG5_PK1500.00] is set to out-of-service ***

 Channel output file is "VN_wind_2.out"

 4909 diagonal and 6673 off-diagonal elements

    TIME X- VALUE --X X--------- IDENTIFIER ---------X X- VALUE --X X--------- IDENTIFIER ---------X
  1.0000 -4.52063E-08 SPD 919013[SONLA_H3    18.000]1  -6.13441E-08 SPD 923012[HOABINH_H2  15.750]1
     3   -8.35456E-08 SPD 938011[VUNGANG1_S1 26.000]1  -6.95686E-08 SPD 978022[PHUMY1_G2   15.000]1
     5   -1.00166E-07 SPD 983042[OMON1_S2    16.000]1

 13.4992  9.29233E-04  9.29829E-04  9.56810E-04  1.02043E-03  1.01882E-03

 26.0010  4.89335E-04  4.88995E-04  4.85740E-04  4.78692E-04  4.78429E-04

 30.0018  4.22537E-04  4.22374E-04  4.19431E-04  4.10500E-04  4.10782E-04
